* hi this is a test
l1 0 2 1
c3 0 2 2
l2 0 2 1
l3 0 2 1
.tran 10m
dv 1m
dI 1m
dT 10u